Lmod has detected the following error: Swap failed: "PrgEnv-cray" is not
loaded.



+ spack-start
+ spack env activate -p -d /home/bslee/spack-manager/environments/atom
==============================================================================
                AMR-Wind (https://github.com/exawind/amr-wind)

  AMR-Wind version :: d76cacec
  AMR-Wind Git SHA :: d76cacec2ece5bf0e13615b85aa45c5da2350c5e
  AMReX version    :: 23.10-18-g7c5ff6911763

  Exec. time       :: Wed Nov  8 09:14:25 2023
  Build time       :: Oct 20 2023 12:36:22
  C++ compiler     :: IntelLLVM 2023.2.0

  MPI              :: ON    (Num. ranks = 72)
  GPU              :: OFF
  OpenMP           :: OFF

  Enabled third-party libraries: 
    NetCDF    4.7.4
    HYPRE     2.29.0
    OpenFAST  

           This software is released under the BSD 3-clause license.           
 See https://github.com/Exawind/amr-wind/blob/development/LICENSE for details. 
------------------------------------------------------------------------------

Initializing AMReX (23.10-18-g7c5ff6911763)...
MPI initialized with 72 MPI processes
MPI initialized with thread support level 0
AMReX (23.10-18-g7c5ff6911763) initialized
Initializing AMR-Wind ...
Initializing boundary conditions for velocity_mueff
Initializing boundary conditions for velocity
Initializing boundary conditions for density
Initializing boundary conditions for p
Initializing boundary conditions for velocity_src_term
Initializing boundary conditions for gp
Creating PDESystem instance: ICNS-Godunov
ABLWallFunction: log_law_height not specified for ABL physics. Assuming log_law_height = first cell height
ABLWallFunction: Inflow/Outflow mode is turned on. Please make sure wall shear stress type is set to local.
Initializing boundary conditions for temperature_mueff
Initializing boundary conditions for temperature
Initializing boundary conditions for temperature_src_term
Creating PDESystem instance: Temperature-Godunov
Creating ABLStatsBase instance: precursor
Creating Physics instance: ABL
Creating Physics instance: Actuator
Initializing boundary conditions for mu_turb
using PiecewiseConstant interpolation for TKE fillpatch
Initializing boundary conditions for tke_mueff
Initializing boundary conditions for tke
Initializing boundary conditions for tke_src_term
Creating PDESystem instance: TKE-Godunov
Creating TurbulenceModel instance: OneEqKsgsM84-ConstTransport
Creating RefinementCriteria instance: GeometryRefinement
(520 1040 0)
(880 1040 0)
(880 1520 0)
(520 1520 0)
(520 1040 360)
(880 1040 360)
(880 1520 360)
(520 1520 360)
Creating GeometryType instance: box
Creating RefinementCriteria instance: GeometryRefinement
(1160 1040 0)
(1520 1040 0)
(1520 1520 0)
(1160 1520 0)
(1160 1040 360)
(1520 1040 360)
(1520 1520 360)
(1160 1520 360)
Creating GeometryType instance: box
Creating RefinementCriteria instance: GeometryRefinement
(1800 1040 0)
(2160 1040 0)
(2160 1520 0)
(1800 1520 0)
(1800 1040 360)
(2160 1040 360)
(2160 1520 360)
(1800 1520 360)
Creating GeometryType instance: box
Creating RefinementCriteria instance: GeometryRefinement
(580 1100 20)
(760 1100 20)
(760 1460 20)
(580 1460 20)
(580 1100 200)
(760 1100 200)
(760 1460 200)
(580 1460 200)
Creating GeometryType instance: box
Creating RefinementCriteria instance: GeometryRefinement
(1220 1100 20)
(1400 1100 20)
(1400 1460 20)
(1220 1460 20)
(1220 1100 200)
(1400 1100 200)
(1400 1460 200)
(1220 1460 200)
Creating GeometryType instance: box
Creating RefinementCriteria instance: GeometryRefinement
(1860 1100 20)
(2040 1100 20)
(2040 1460 20)
(1860 1460 20)
(1860 1100 200)
(2040 1100 200)
(2040 1460 200)
(1860 1460 200)
Creating GeometryType instance: box
Creating PostProcessBase instance: Sampling
Creating PostProcessBase instance: TimeAveraging
Initializing boundary conditions for velocity_mean
Creating FieldTimeAverage instance: ReAveraging
Initializing boundary conditions for velocity_stress
Initializing boundary conditions for velocity_reynolds_stress
Creating FieldTimeAverage instance: ReynoldsStress
Initializing I/O manager
Creating ActuatorModel instance: TurbineFastDisk
Initializing turbine:T0
Creating ActuatorModel instance: TurbineFastDisk
Initializing turbine:T1
Creating ActuatorModel instance: TurbineFastDisk
Initializing turbine:T2
Restarting from checkpoint ../02_atmosphere/spinup/chk14400

WARNING: The following fields were missing in the restart file for one or more levels. Please check your restart file and inputs.
Missing checkpoint fields: 
  - velocity_mean
  - velocity_reynolds_stress
  - velocity_stress

Grid summary: 
  Level 0   128 grids  1048576 cells  100 % of domain
            smallest grid: 32 x 16 x 16  biggest grid: 32 x 16 x 16
  Level 1   72 grids  450560 cells  5.37109375 % of domain
            smallest grid: 16 x 16 x 8  biggest grid: 32 x 16 x 16
  Level 2   90 grids  552960 cells  0.8239746094 % of domain
            smallest grid: 16 x 16 x 16  biggest grid: 32 x 16 x 16

Shear Stress model: local
Heat Flux model: local
Creating ExtSolver instance: OpenFAST

 **************************************************************************************************
 OpenFAST

 Copyright (C) 2023 National Renewable Energy Laboratory
 Copyright (C) 2023 Envision Energy USA LTD

 This program is licensed under Apache License Version 2.0 and comes with ABSOLUTELY NO WARRANTY.
 See the "LICENSE" file distributed with this software for details.
 **************************************************************************************************

 OpenFAST-v3.4.1
 Compile Info:
  - Compiler: Intel(R) Fortran Intel(R) 64 Compiler Classic for applications running on Intel(R)
  64, Version 2021.10.0 Build 20230609_000000
  - Architecture: 64 bit
  - Precision: double
  - OpenMP: No
  - Date: Oct 20 2023
  - Time: 12:29:46
 Execution Info:
  - Date: 11/08/2023
  - Time: 09:14:32-0700

 OpenFAST input file heading:
     Generated with AeroElasticSE FAST driver

 Running ElastoDyn.
 Nodal outputs section of ElastoDyn input file not found or improperly formatted.
 Running AeroDyn.
 Warning: Turning off Unsteady Aerodynamics because polar has constant data. (node 1, blade 1)
 Warning: Turning off Unsteady Aerodynamics because C_nalpha is 0. (node 2, blade 1)
 Warning: Turning off Unsteady Aerodynamics because C_nalpha is 0. (node 3, blade 1)
 Warning: Turning off Unsteady Aerodynamics because C_nalpha is 0. (node 4, blade 1)
 Warning: Turning off Unsteady Aerodynamics because C_nalpha is 0. (node 5, blade 1)
 Warning: Turning off Unsteady Aerodynamics because C_nalpha is 0. (node 7, blade 1)
 Warning: Turning off Unsteady Aerodynamics because polar has constant data. (node 1, blade 2)
 Warning: Turning off Unsteady Aerodynamics because C_nalpha is 0. (node 2, blade 2)
 Warning: Turning off Unsteady Aerodynamics because C_nalpha is 0. (node 3, blade 2)
 Warning: Turning off Unsteady Aerodynamics because C_nalpha is 0. (node 4, blade 2)
 Warning: Turning off Unsteady Aerodynamics because C_nalpha is 0. (node 5, blade 2)
 Warning: Turning off Unsteady Aerodynamics because C_nalpha is 0. (node 7, blade 2)
 Warning: Turning off Unsteady Aerodynamics because polar has constant data. (node 1, blade 3)
 Warning: Turning off Unsteady Aerodynamics because C_nalpha is 0. (node 2, blade 3)
 Warning: Turning off Unsteady Aerodynamics because C_nalpha is 0. (node 3, blade 3)
 Warning: Turning off Unsteady Aerodynamics because C_nalpha is 0. (node 4, blade 3)
 Warning: Turning off Unsteady Aerodynamics because C_nalpha is 0. (node 5, blade 3)
 Warning: Turning off Unsteady Aerodynamics because C_nalpha is 0. (node 7, blade 3)
 Running ServoDyn.
 Running ServoDyn Interface for Bladed Controllers (using Intel Fortran for Linux).
 Using legacy Bladed DLL interface.

 **************************************************************************************************
 OpenFAST

 Copyright (C) 2023 National Renewable Energy Laboratory
 Copyright (C) 2023 Envision Energy USA LTD

 This program is licensed under Apache License Version 2.0 and comes with ABSOLUTELY NO WARRANTY.
 See the "LICENSE" file distributed with this software for details.
 **************************************************************************************************

 OpenFAST-v3.4.1
 Compile Info:
  - Compiler: Intel(R) Fortran Intel(R) 64 Compiler Classic for applications running on Intel(R)
  64, Version 2021.10.0 Build 20230609_000000
  - Architecture: 64 bit
  - Precision: double
  - OpenMP: No
  - Date: Oct 20 2023
  - Time: 12:29:46
 Execution Info:
  - Date: 11/08/2023
  - Time: 09:15:02-0700

 OpenFAST input file heading:
     Generated with AeroElasticSE FAST driver

 Running ElastoDyn.
 Nodal outputs section of ElastoDyn input file not found or improperly formatted.
 Running AeroDyn.
 Warning: Turning off Unsteady Aerodynamics because polar has constant data. (node 1, blade 1)
 Warning: Turning off Unsteady Aerodynamics because C_nalpha is 0. (node 2, blade 1)
 Warning: Turning off Unsteady Aerodynamics because C_nalpha is 0. (node 3, blade 1)
 Warning: Turning off Unsteady Aerodynamics because C_nalpha is 0. (node 4, blade 1)
 Warning: Turning off Unsteady Aerodynamics because C_nalpha is 0. (node 5, blade 1)
 Warning: Turning off Unsteady Aerodynamics because C_nalpha is 0. (node 7, blade 1)
 Warning: Turning off Unsteady Aerodynamics because polar has constant data. (node 1, blade 2)
 Warning: Turning off Unsteady Aerodynamics because C_nalpha is 0. (node 2, blade 2)
 Warning: Turning off Unsteady Aerodynamics because C_nalpha is 0. (node 3, blade 2)
 Warning: Turning off Unsteady Aerodynamics because C_nalpha is 0. (node 4, blade 2)
 Warning: Turning off Unsteady Aerodynamics because C_nalpha is 0. (node 5, blade 2)
 Warning: Turning off Unsteady Aerodynamics because C_nalpha is 0. (node 7, blade 2)
 Warning: Turning off Unsteady Aerodynamics because polar has constant data. (node 1, blade 3)
 Warning: Turning off Unsteady Aerodynamics because C_nalpha is 0. (node 2, blade 3)
 Warning: Turning off Unsteady Aerodynamics because C_nalpha is 0. (node 3, blade 3)
 Warning: Turning off Unsteady Aerodynamics because C_nalpha is 0. (node 4, blade 3)
 Warning: Turning off Unsteady Aerodynamics because C_nalpha is 0. (node 5, blade 3)
 Warning: Turning off Unsteady Aerodynamics because C_nalpha is 0. (node 7, blade 3)
 Running ServoDyn.
 Running ServoDyn Interface for Bladed Controllers (using Intel Fortran for Linux).
 Using legacy Bladed DLL interface.

 **************************************************************************************************
 OpenFAST

 Copyright (C) 2023 National Renewable Energy Laboratory
 Copyright (C) 2023 Envision Energy USA LTD

 This program is licensed under Apache License Version 2.0 and comes with ABSOLUTELY NO WARRANTY.
 See the "LICENSE" file distributed with this software for details.
 **************************************************************************************************

 OpenFAST-v3.4.1
 Compile Info:
  - Compiler: Intel(R) Fortran Intel(R) 64 Compiler Classic for applications running on Intel(R)
  64, Version 2021.10.0 Build 20230609_000000
  - Architecture: 64 bit
  - Precision: double
  - OpenMP: No
  - Date: Oct 20 2023
  - Time: 12:29:46
 Execution Info:
  - Date: 11/08/2023
  - Time: 09:15:50-0700

 OpenFAST input file heading:
     Generated with AeroElasticSE FAST driver

 Running ElastoDyn.
 Nodal outputs section of ElastoDyn input file not found or improperly formatted.
 Running AeroDyn.
 Warning: Turning off Unsteady Aerodynamics because polar has constant data. (node 1, blade 1)
 Warning: Turning off Unsteady Aerodynamics because C_nalpha is 0. (node 2, blade 1)
 Warning: Turning off Unsteady Aerodynamics because C_nalpha is 0. (node 3, blade 1)
 Warning: Turning off Unsteady Aerodynamics because C_nalpha is 0. (node 4, blade 1)
 Warning: Turning off Unsteady Aerodynamics because C_nalpha is 0. (node 5, blade 1)
 Warning: Turning off Unsteady Aerodynamics because C_nalpha is 0. (node 7, blade 1)
 Warning: Turning off Unsteady Aerodynamics because polar has constant data. (node 1, blade 2)
 Warning: Turning off Unsteady Aerodynamics because C_nalpha is 0. (node 2, blade 2)
 Warning: Turning off Unsteady Aerodynamics because C_nalpha is 0. (node 3, blade 2)
 Warning: Turning off Unsteady Aerodynamics because C_nalpha is 0. (node 4, blade 2)
 Warning: Turning off Unsteady Aerodynamics because C_nalpha is 0. (node 5, blade 2)
 Warning: Turning off Unsteady Aerodynamics because C_nalpha is 0. (node 7, blade 2)
 Warning: Turning off Unsteady Aerodynamics because polar has constant data. (node 1, blade 3)
 Warning: Turning off Unsteady Aerodynamics because C_nalpha is 0. (node 2, blade 3)
 Warning: Turning off Unsteady Aerodynamics because C_nalpha is 0. (node 3, blade 3)
 Warning: Turning off Unsteady Aerodynamics because C_nalpha is 0. (node 4, blade 3)
 Warning: Turning off Unsteady Aerodynamics because C_nalpha is 0. (node 5, blade 3)
 Warning: Turning off Unsteady Aerodynamics because C_nalpha is 0. (node 7, blade 3)
 Running ServoDyn.
 Running ServoDyn Interface for Bladed Controllers (using Intel Fortran for Linux).
 Using legacy Bladed DLL interface.
 Error in FAST_OpFM_Init:FAST_InitializeAll_TFAST_InitializeAll:Error allocating 1344741272 bytes
 of memory for the AllOutData array. 
terminate called after throwing an instance of 'std::runtime_error'
  what():  FastIface: Error calling OpenFAST function: 
FAST_InitializeAll:Error allocating 1344741272 bytes of memory for the AllOutData array.
srun: error: x1000c0s0b0n1: task 1: Aborted (core dumped)
